EESchema Schematic File Version 4
LIBS:vco-cache
EELAYER 29 0
EELAYER END
$Descr A4 11693 8268
encoding utf-8
Sheet 1 1
Title ""
Date ""
Rev ""
Comp ""
Comment1 ""
Comment2 ""
Comment3 ""
Comment4 ""
$EndDescr
$Comp
L pspice:OPAMP U1
U 1 1 5CEFFDD2
P 1950 1400
F 0 "U1" H 2100 1300 50  0000 L CNN
F 1 "LM324" H 2050 1200 50  0000 L CNN
F 2 "" H 1950 1400 50  0001 C CNN
F 3 "~" H 1950 1400 50  0001 C CNN
F 4 "X" H 1950 1400 50  0001 C CNN "Spice_Primitive"
F 5 "LM324" H 1950 1400 50  0001 C CNN "Spice_Model"
F 6 "Y" H 1950 1400 50  0001 C CNN "Spice_Netlist_Enabled"
F 7 "LM324.ti.lib" H 1950 1400 50  0001 C CNN "Spice_Lib_File"
F 8 "1,2,4,5,3" H 1950 1400 50  0001 C CNN "Spice_Node_Sequence"
	1    1950 1400
	1    0    0    -1  
$EndComp
$Comp
L Device:R R1
U 1 1 5CF04A0E
P 1450 1050
F 0 "R1" H 1300 1100 50  0000 L CNN
F 1 "100k" V 1450 950 50  0000 L CNN
F 2 "" V 1380 1050 50  0001 C CNN
F 3 "~" H 1450 1050 50  0001 C CNN
	1    1450 1050
	1    0    0    -1  
$EndComp
$Comp
L Device:R R2
U 1 1 5CF0529A
P 1450 1550
F 0 "R2" H 1300 1500 50  0000 L CNN
F 1 "100k" V 1450 1450 50  0000 L CNN
F 2 "" V 1380 1550 50  0001 C CNN
F 3 "~" H 1450 1550 50  0001 C CNN
	1    1450 1550
	1    0    0    -1  
$EndComp
Wire Wire Line
	1450 800  1450 850 
Wire Wire Line
	1450 1200 1450 1300
Wire Wire Line
	1450 1300 1650 1300
Connection ~ 1450 1300
Wire Wire Line
	1450 1300 1450 1400
Wire Wire Line
	1850 1850 1850 1700
Wire Wire Line
	1850 850  1850 1100
Connection ~ 1450 850 
Wire Wire Line
	1450 850  1450 900 
Wire Wire Line
	2550 1550 2550 1400
Text Notes 2000 1100 0    50   ~ 0
Rail splitter:\nVirtual Ground
$Comp
L pspice:VSOURCE V1
U 1 1 5CF077E7
P 1050 1350
F 0 "V1" H 650 1450 50  0000 L CNN
F 1 "9" H 650 1200 50  0000 L CNN
F 2 "" H 1050 1350 50  0001 C CNN
F 3 "~" H 1050 1350 50  0001 C CNN
	1    1050 1350
	1    0    0    -1  
$EndComp
Wire Wire Line
	1050 850  1050 1050
Wire Wire Line
	1050 1650 1050 1850
Wire Wire Line
	1450 850  1050 850 
Wire Wire Line
	1450 850  1850 850 
Wire Wire Line
	1450 1700 1450 1850
Wire Wire Line
	1050 1850 1450 1850
Connection ~ 1450 1850
Wire Wire Line
	1850 1850 1450 1850
Text Notes 1150 4250 0    50   ~ 0
.tran 1m 1
Wire Wire Line
	1600 1750 1600 1500
Wire Wire Line
	1600 1500 1650 1500
Wire Wire Line
	1600 1750 2350 1750
$Comp
L power:VCC #PWR?
U 1 1 5CF0E364
P 1450 800
F 0 "#PWR?" H 1450 650 50  0001 C CNN
F 1 "VCC" H 1467 973 50  0000 C CNN
F 2 "" H 1450 800 50  0001 C CNN
F 3 "" H 1450 800 50  0001 C CNN
	1    1450 800 
	1    0    0    -1  
$EndComp
$Comp
L power:VEE #PWR?
U 1 1 5CF0FCB5
P 1450 1900
F 0 "#PWR?" H 1450 1750 50  0001 C CNN
F 1 "VEE" H 1468 2073 50  0000 C CNN
F 2 "" H 1450 1900 50  0001 C CNN
F 3 "" H 1450 1900 50  0001 C CNN
	1    1450 1900
	-1   0    0    1   
$EndComp
Wire Wire Line
	1450 1850 1450 1900
Wire Wire Line
	2250 1400 2350 1400
Wire Wire Line
	2350 1400 2350 1750
Connection ~ 2350 1400
Wire Wire Line
	2350 1400 2550 1400
$Comp
L pspice:0 #GND?
U 1 1 5CF02FCA
P 1050 2000
F 0 "#GND?" H 1050 1900 50  0001 C CNN
F 1 "0" H 1000 2100 50  0000 C CNN
F 2 "" H 1050 2000 50  0001 C CNN
F 3 "~" H 1050 2000 50  0001 C CNN
	1    1050 2000
	1    0    0    -1  
$EndComp
Connection ~ 1050 1850
Wire Wire Line
	1050 2000 1050 1850
$Comp
L power:GNDREF #PWR?
U 1 1 5CF0644C
P 2550 1550
F 0 "#PWR?" H 2550 1300 50  0001 C CNN
F 1 "GNDREF" H 2555 1377 50  0000 C CNN
F 2 "" H 2550 1550 50  0001 C CNN
F 3 "" H 2550 1550 50  0001 C CNN
	1    2550 1550
	1    0    0    -1  
$EndComp
$EndSCHEMATC
